opendss/LVTestCase/time_series_python.dss
clear

Set DefaultBaseFrequency=50  ! for European system

New circuit.LVTest
Edit Vsource.Source BasekV=11 pu=1.05  ISC3=3000  ISC1=5
Redirect ".\data\LineCode.txt"
Redirect ".\data\LoadShapes_1week.txt" 
Redirect ".\data\Lines.txt"
Redirect ".\data\Transformers.txt"

!Set voltagebases=[11  .416]
!Calcvoltagebases

!buscoords ".\data\buscoords.txt"
!solve

!set mode=yearly number=336 stepsize=30m    ! one year simulation 